/*--------------------------------*- C++ -*----------------------------------*\
| Generated automatically by foam_generator.py                               |
\*---------------------------------------------------------------------------*/
FoamFile
{
    version     2.0;
    format      ascii;
    class       dictionary;
    object      controlDict;
}
// * * * * * * * * * * * * * * * * * * * * * * * * * * * * * * * * * * * * * //

application     {{ simulation.solver }};

startFrom       startTime;
startTime       0;

stopAt          endTime;
endTime         {{ simulation.endTime }};

deltaT          {{ simulation.deltaT }};

writeControl    runTime;
writeInterval   {{ simulation.writeInterval }};

writeFormat     ascii;
writePrecision  6;
writeCompression off;

timeFormat      general;
timePrecision   6;

runTimeModifiable true;

// ************************************************************************* //
